
[General]
network = testcases.TAS_CBS_FP.Orion.TC1_2_100timesAVBLoad.orion

#abstract-config = true (requires omnet 6)
description = ""

# Set the simulation time
sim-time-limit = 1s
repeat = 10

# disable automatic MAC forwarding table configuration
*.macForwardingTableConfigurator.typename = ""

# disable local multicast loop
**.udp.defaultMulticastLoop = false

*.*.eth[*].bitrate = 1Gbps

*.*.ethernet.typename = "EthernetLayer"
*.*.eth[*].typename = "LayeredEthernetInterface"

##########################
# Visualizer Configuration
# enable multiple canvas visualizers
*.visualizer.typename = "IntegratedMultiCanvasVisualizer"

#################################

*.ES*.app[*].tagger.typename = "PacketTagger" # enable VLAN Tagging

#################################################
# Frame Preemption Configuration
*.*.eth[*].macLayer.typename = "EthernetPreemptingMacLayer"
*.*.eth[*].phyLayer.typename = "EthernetPreemptingPhyLayer"
*.*.eth[*].macLayer.preemptingServer.preemptionMode = "withHoldRelease" #"withHoldRelease" #"withoutHoldRelease"

#############################
# Stream Coding Configuration
*.*.hasOutgoingStreams = true
*.*.hasIncomingStreams = true

###############################
# Traffic Shaping Configuration
*.*.hasEgressTrafficShaping = true

## disable forwarding IEEE 802.1Q C-Tag
#*.SW*.bridging.directionReverser.reverser.excludeEncapsulationProtocols = ["ieee8021qctag"]

# TAS Configuration
*.*.eth[*].macLayer.preemptableMacLayer.queue.transmissionGate[0].enableImplicitGuardBand = true 	# activate implicit guard band for AVB Traffic
*.*.eth[*].macLayer.preemptableMacLayer.queue.transmissionGate[0].gbMode = "worstCase" # "worstCase" "bestCase"
*.*.eth[*].macLayer.expressMacLayer.queue.transmissionGate[0].enableImplicitGuardBand = false 	# activate implicit guard band for Scheduled Traffic
*.*.eth[*].macLayer.expressMacLayer.queue.transmissionGate[0].gbMode = "bestCase" # "worstCase" "bestCase"

*.*.eth[*].macLayer.expressMacLayer.queue.numTrafficClasses = 1 # TT traffic class(-es) in eMAC
*.*.eth[*].macLayer.preemptableMacLayer.queue.numTrafficClasses = 1 # AVB traffic class(-es) in pMAC

# queue naming
*.*.eth[*].macLayer.expressMacLayer.queue[0].display-name = "TT"
*.*.eth[*].macLayer.preemptableMacLayer.queue[0].display-name = "AVB_A"

*.SW52.macTable.forwardingTable = [{address: "ES_STARTR2", vlan: 1, interface: "eth1"}, 
								{address: "ES_LCM1", vlan: 11, interface: "eth2"}, 
								{address: "ES_CM1CA", vlan: 27, interface: "eth2"}, 
								{address: "ES_SM2CA", vlan: 33, interface: "eth0"}, 
								{address: "ES_SM2CA", vlan: 34, interface: "eth0"}, 
								{address: "ES_STARTR1", vlan: 38, interface: "eth1"}, 
								{address: "ES_SMRIU2", vlan: 41, interface: "eth1"}, 
								{address: "ES_SM2CA", vlan: 42, interface: "eth0"}, 
								{address: "ES_SM2CB", vlan: 43, interface: "eth3"}, 
								{address: "ES_MIMU2", vlan: 44, interface: "eth1"}, 
								{address: "ES_SM1CA", vlan: 46, interface: "eth2"}, 
								{address: "ES_CM2CA", vlan: 52, interface: "eth1"}, 
								{address: "ES_STARTR1", vlan: 55, interface: "eth1"}, 
								{address: "ES_SM2CB", vlan: 58, interface: "eth3"}, 
								{address: "ES_SM2CB", vlan: 59, interface: "eth3"}, 
								{address: "ES_STARTR2", vlan: 63, interface: "eth1"}, 
								{address: "ES_SM2CB", vlan: 67, interface: "eth3"}, 
								{address: "ES_CM2CB", vlan: 68, interface: "eth1"}, 
								{address: "ES_SM2CA", vlan: 71, interface: "eth0"}, 
								{address: "ES_SM2CB", vlan: 74, interface: "eth3"}, 
								{address: "ES_SM2CA", vlan: 80, interface: "eth0"}, 
								{address: "ES_SM2CA", vlan: 84, interface: "eth0"}, 
								{address: "ES_SM2CA", vlan: 91, interface: "eth0"}, 
								{address: "ES_GPS2", vlan: 94, interface: "eth1"}, 
								{address: "ES_LCM1", vlan: 105, interface: "eth2"}, 
								{address: "ES_LCM2", vlan: 110, interface: "eth1"}]

*.SW42.macTable.forwardingTable = [{address: "ES_STARTR2", vlan: 1, interface: "eth1"}, 
								{address: "ES_SMRIU1", vlan: 2, interface: "eth1"}, 
								{address: "ES_CM2CB", vlan: 3, interface: "eth3"}, 
								{address: "ES_DU2", vlan: 25, interface: "eth1"}, 
								{address: "ES_STARTR1", vlan: 38, interface: "eth1"}, 
								{address: "ES_SMRIU2", vlan: 41, interface: "eth1"}, 
								{address: "ES_MIMU2", vlan: 44, interface: "eth1"}, 
								{address: "ES_MIMU2", vlan: 45, interface: "eth1"}, 
								{address: "ES_SM1CB", vlan: 51, interface: "eth1"}, 
								{address: "ES_CM2CA", vlan: 52, interface: "eth2"}, 
								{address: "ES_STARTR1", vlan: 55, interface: "eth1"}, 
								{address: "ES_SM2CB", vlan: 58, interface: "eth0"}, 
								{address: "ES_MIMU1", vlan: 61, interface: "eth1"}, 
								{address: "ES_STARTR2", vlan: 63, interface: "eth1"}, 
								{address: "ES_CM1CA", vlan: 65, interface: "eth1"}, 
								{address: "ES_CM2CB", vlan: 68, interface: "eth3"}, 
								{address: "ES_SM2CB", vlan: 74, interface: "eth0"}, 
								{address: "ES_SM2CA", vlan: 80, interface: "eth0"}, 
								{address: "ES_SM2CA", vlan: 91, interface: "eth0"}, 
								{address: "ES_SM1CB", vlan: 92, interface: "eth1"}, 
								{address: "ES_CM2CB", vlan: 93, interface: "eth3"}, 
								{address: "ES_GPS2", vlan: 94, interface: "eth1"}, 
								{address: "ES_LCM2", vlan: 95, interface: "eth1"}, 
								{address: "ES_CM2CB", vlan: 98, interface: "eth3"}, 
								{address: "ES_LCM2", vlan: 110, interface: "eth1"}, 
								{address: "ES_SM1CB", vlan: 115, interface: "eth1"}, 
								{address: "ES_CM2CB", vlan: 120, interface: "eth3"}, 
								{address: "ES_CM2CB", vlan: 130, interface: "eth3"}]

*.SW32.macTable.forwardingTable = [{address: "ES_STARTR2", vlan: 1, interface: "eth1"}, 
								{address: "ES_SMRIU1", vlan: 2, interface: "eth2"}, 
								{address: "ES_CM2CB", vlan: 3, interface: "eth0"}, 
								{address: "ES_DU3", vlan: 7, interface: "eth1"}, 
								{address: "ES_MIMU1", vlan: 15, interface: "eth1"}, 
								{address: "ES_LCM2", vlan: 16, interface: "eth4"}, 
								{address: "ES_CMRIU2", vlan: 19, interface: "eth1"}, 
								{address: "ES_RCM2", vlan: 20, interface: "eth6"}, 
								{address: "ES_FCM2", vlan: 23, interface: "eth3"}, 
								{address: "ES_DU2", vlan: 25, interface: "eth1"}, 
								{address: "ES_RCM2", vlan: 28, interface: "eth6"}, 
								{address: "ES_SBAND1", vlan: 37, interface: "eth1"}, 
								{address: "ES_STARTR1", vlan: 38, interface: "eth1"}, 
								{address: "ES_SMRIU2", vlan: 41, interface: "eth2"}, 
								{address: "ES_MIMU2", vlan: 44, interface: "eth1"}, 
								{address: "ES_MIMU2", vlan: 45, interface: "eth1"}, 
								{address: "ES_SM1CB", vlan: 51, interface: "eth5"}, 
								{address: "ES_LCM2", vlan: 53, interface: "eth4"}, 
								{address: "ES_FCM2", vlan: 54, interface: "eth3"}, 
								{address: "ES_STARTR1", vlan: 55, interface: "eth1"}, 
								{address: "ES_SM2CB", vlan: 58, interface: "eth0"}, 
								{address: "ES_SMRIU1", vlan: 60, interface: "eth2"}, 
								{address: "ES_MIMU1", vlan: 61, interface: "eth1"}, 
								{address: "ES_STARTR1", vlan: 62, interface: "eth1"}, 
								{address: "ES_STARTR2", vlan: 63, interface: "eth1"}, 
								{address: "ES_CM1CA", vlan: 65, interface: "eth2"}, 
								{address: "ES_LCM2", vlan: 73, interface: "eth4"}, 
								{address: "ES_SM2CB", vlan: 74, interface: "eth0"}, 
								{address: "ES_FCM2", vlan: 79, interface: "eth3"}, 
								{address: "ES_RCM2", vlan: 81, interface: "eth6"}, 
								{address: "ES_SM1CA", vlan: 85, interface: "eth5"}, 
								{address: "ES_DU2", vlan: 86, interface: "eth1"}, 
								{address: "ES_SM2CA", vlan: 91, interface: "eth0"}, 
								{address: "ES_SM1CB", vlan: 92, interface: "eth5"}, 
								{address: "ES_CM2CB", vlan: 93, interface: "eth0"}, 
								{address: "ES_GPS2", vlan: 94, interface: "eth1"}, 
								{address: "ES_LCM2", vlan: 95, interface: "eth4"}, 
								{address: "ES_CM2CB", vlan: 98, interface: "eth0"}, 
								{address: "ES_LCM2", vlan: 103, interface: "eth4"}, 
								{address: "ES_LCM2", vlan: 110, interface: "eth4"}, 
								{address: "ES_SM1CB", vlan: 115, interface: "eth5"}, 
								{address: "ES_SM1CA", vlan: 117, interface: "eth5"}, 
								{address: "ES_CM2CB", vlan: 120, interface: "eth0"}, 
								{address: "ES_FCM2", vlan: 128, interface: "eth3"}, 
								{address: "ES_CM2CB", vlan: 130, interface: "eth0"}, 
								{address: "ES_SM1CA", vlan: 132, interface: "eth5"}]

*.SW22.macTable.forwardingTable = [{address: "ES_STARTR2", vlan: 1, interface: "eth1"}, 
								{address: "ES_CM2CB", vlan: 3, interface: "eth0"}, 
								{address: "ES_DU3", vlan: 7, interface: "eth2"}, 
								{address: "ES_GPS1", vlan: 12, interface: "eth4"}, 
								{address: "ES_MIMU1", vlan: 15, interface: "eth1"}, 
								{address: "ES_LCM2", vlan: 16, interface: "eth0"}, 
								{address: "ES_RCM1", vlan: 17, interface: "eth6"}, 
								{address: "ES_BFCU", vlan: 18, interface: "eth3"}, 
								{address: "ES_CMRIU2", vlan: 19, interface: "eth5"}, 
								{address: "ES_RCM2", vlan: 20, interface: "eth0"}, 
								{address: "ES_CMRIU2", vlan: 22, interface: "eth5"}, 
								{address: "ES_DU2", vlan: 25, interface: "eth2"}, 
								{address: "ES_RCM2", vlan: 28, interface: "eth0"}, 
								{address: "ES_BFCU", vlan: 29, interface: "eth3"}, 
								{address: "ES_MIMU3", vlan: 32, interface: "eth1"}, 
								{address: "ES_CMRIU2", vlan: 36, interface: "eth5"}, 
								{address: "ES_SBAND1", vlan: 37, interface: "eth7"}, 
								{address: "ES_STARTR1", vlan: 38, interface: "eth1"}, 
								{address: "ES_MIMU2", vlan: 44, interface: "eth1"}, 
								{address: "ES_MIMU2", vlan: 45, interface: "eth1"}, 
								{address: "ES_STARTR1", vlan: 55, interface: "eth1"}, 
								{address: "ES_MIMU3", vlan: 57, interface: "eth1"}, 
								{address: "ES_MIMU1", vlan: 61, interface: "eth1"}, 
								{address: "ES_STARTR1", vlan: 62, interface: "eth1"}, 
								{address: "ES_STARTR2", vlan: 63, interface: "eth1"}, 
								{address: "ES_CMRIU2", vlan: 77, interface: "eth5"}, 
								{address: "ES_FCM2", vlan: 79, interface: "eth0"}, 
								{address: "ES_RCM2", vlan: 81, interface: "eth0"}, 
								{address: "ES_DU2", vlan: 86, interface: "eth2"}, 
								{address: "ES_CM1CA", vlan: 89, interface: "eth6"}, 
								{address: "ES_SM2CA", vlan: 91, interface: "eth0"}, 
								{address: "ES_CM2CB", vlan: 93, interface: "eth0"}, 
								{address: "ES_GPS2", vlan: 94, interface: "eth4"}, 
								{address: "ES_CM2CB", vlan: 98, interface: "eth0"}, 
								{address: "ES_CM1CB", vlan: 99, interface: "eth6"}, 
								{address: "ES_LCM2", vlan: 103, interface: "eth0"}, 
								{address: "ES_SM1CA", vlan: 117, interface: "eth0"}, 
								{address: "ES_CM2CB", vlan: 120, interface: "eth0"}, 
								{address: "ES_CM2CB", vlan: 130, interface: "eth0"}, 
								{address: "ES_SM1CA", vlan: 132, interface: "eth0"}]

*.SW13.macTable.forwardingTable = [{address: "ES_STARTR2", vlan: 1, interface: "eth1"}, 
								{address: "ES_STARTR1", vlan: 6, interface: "eth3"}, 
								{address: "ES_MIMU2", vlan: 14, interface: "eth4"}, 
								{address: "ES_MIMU1", vlan: 15, interface: "eth5"}, 
								{address: "ES_LCM2", vlan: 16, interface: "eth0"}, 
								{address: "ES_RCM1", vlan: 30, interface: "eth2"}, 
								{address: "ES_MIMU3", vlan: 32, interface: "eth6"}, 
								{address: "ES_SM2CA", vlan: 34, interface: "eth2"}, 
								{address: "ES_STARTR1", vlan: 38, interface: "eth3"}, 
								{address: "ES_SBAND1", vlan: 39, interface: "eth2"}, 
								{address: "ES_STARTR2", vlan: 40, interface: "eth1"}, 
								{address: "ES_SM2CB", vlan: 43, interface: "eth2"}, 
								{address: "ES_MIMU2", vlan: 44, interface: "eth4"}, 
								{address: "ES_MIMU2", vlan: 45, interface: "eth4"}, 
								{address: "ES_MIMU3", vlan: 47, interface: "eth6"}, 
								{address: "ES_DU3", vlan: 48, interface: "eth2"}, 
								{address: "ES_DU1", vlan: 49, interface: "eth2"}, 
								{address: "ES_STARTR2", vlan: 50, interface: "eth1"}, 
								{address: "ES_STARTR1", vlan: 55, interface: "eth3"}, 
								{address: "ES_MIMU3", vlan: 57, interface: "eth6"}, 
								{address: "ES_MIMU1", vlan: 61, interface: "eth5"}, 
								{address: "ES_STARTR1", vlan: 62, interface: "eth3"}, 
								{address: "ES_STARTR2", vlan: 63, interface: "eth1"}, 
								{address: "ES_CMRIU1", vlan: 64, interface: "eth2"}, 
								{address: "ES_MIMU1", vlan: 69, interface: "eth5"}, 
								{address: "ES_CMRIU2", vlan: 77, interface: "eth0"}, 
								{address: "ES_MIMU1", vlan: 78, interface: "eth5"}, 
								{address: "ES_CM1CB", vlan: 82, interface: "eth2"}, 
								{address: "ES_GPS1", vlan: 87, interface: "eth2"}, 
								{address: "ES_CM2CB", vlan: 93, interface: "eth0"}, 
								{address: "ES_MIMU3", vlan: 96, interface: "eth6"}, 
								{address: "ES_GPS2", vlan: 113, interface: "eth2"}, 
								{address: "ES_CM2CB", vlan: 120, interface: "eth0"}, 
								{address: "ES_CM1CB", vlan: 121, interface: "eth2"}, 
								{address: "ES_SMRIU1", vlan: 123, interface: "eth2"}, 
								{address: "ES_SMRIU2", vlan: 126, interface: "eth2"}, 
								{address: "ES_DU1", vlan: 127, interface: "eth2"}, 
								{address: "ES_MIMU3", vlan: 131, interface: "eth6"}, 
								{address: "ES_SBAND2", vlan: 133, interface: "eth2"}, 
								{address: "ES_SM1CA", vlan: 134, interface: "eth2"}, 
								{address: "ES_STARTR2", vlan: 135, interface: "eth1"}, 
								{address: "ES_STARTR2", vlan: 136, interface: "eth1"}]

*.SW6.macTable.forwardingTable = [{address: "ES_SMRIU1", vlan: 2, interface: "eth1"}, 
								{address: "ES_DU2", vlan: 8, interface: "eth2"}, 
								{address: "ES_FCM2", vlan: 23, interface: "eth0"}, 
								{address: "ES_SMRIU2", vlan: 24, interface: "eth3"}, 
								{address: "ES_SMRIU2", vlan: 41, interface: "eth3"}, 
								{address: "ES_SMRIU1", vlan: 60, interface: "eth1"}, 
								{address: "ES_CM1CA", vlan: 65, interface: "eth2"}, 
								{address: "ES_LCM2", vlan: 73, interface: "eth0"}, 
								{address: "ES_SMRIU1", vlan: 75, interface: "eth1"}, 
								{address: "ES_SMRIU1", vlan: 107, interface: "eth1"}, 
								{address: "ES_SMRIU1", vlan: 116, interface: "eth1"}, 
								{address: "ES_DU3", vlan: 119, interface: "eth2"}, 
								{address: "ES_SMRIU1", vlan: 123, interface: "eth1"}, 
								{address: "ES_SMRIU2", vlan: 126, interface: "eth3"}]

*.SW11.macTable.forwardingTable = [{address: "ES_CM2CB", vlan: 3, interface: "eth1"}, 
								{address: "ES_STARTR1", vlan: 6, interface: "eth2"}, 
								{address: "ES_DU3", vlan: 7, interface: "eth0"}, 
								{address: "ES_DU2", vlan: 8, interface: "eth3"}, 
								{address: "ES_SM1CB", vlan: 9, interface: "eth2"}, 
								{address: "ES_FCM1", vlan: 13, interface: "eth2"}, 
								{address: "ES_BFCU", vlan: 18, interface: "eth1"}, 
								{address: "ES_RCM2", vlan: 20, interface: "eth1"}, 
								{address: "ES_CM1CB", vlan: 21, interface: "eth2"}, 
								{address: "ES_SMRIU2", vlan: 24, interface: "eth2"}, 
								{address: "ES_DU2", vlan: 25, interface: "eth3"}, 
								{address: "ES_DU3", vlan: 31, interface: "eth0"}, 
								{address: "ES_STARTR2", vlan: 40, interface: "eth2"}, 
								{address: "ES_MIMU3", vlan: 47, interface: "eth2"}, 
								{address: "ES_DU3", vlan: 48, interface: "eth0"}, 
								{address: "ES_DU1", vlan: 49, interface: "eth4"}, 
								{address: "ES_STARTR2", vlan: 50, interface: "eth2"}, 
								{address: "ES_SM1CB", vlan: 66, interface: "eth2"}, 
								{address: "ES_MIMU1", vlan: 69, interface: "eth2"}, 
								{address: "ES_DU1", vlan: 70, interface: "eth4"}, 
								{address: "ES_MIMU1", vlan: 78, interface: "eth2"}, 
								{address: "ES_FCM2", vlan: 79, interface: "eth1"}, 
								{address: "ES_DU2", vlan: 86, interface: "eth3"}, 
								{address: "ES_DU2", vlan: 88, interface: "eth3"}, 
								{address: "ES_DU2", vlan: 90, interface: "eth3"}, 
								{address: "ES_LCM2", vlan: 103, interface: "eth1"}, 
								{address: "ES_CMRIU1", vlan: 104, interface: "eth2"}, 
								{address: "ES_DU3", vlan: 106, interface: "eth0"}, 
								{address: "ES_SM1CA", vlan: 109, interface: "eth2"}, 
								{address: "ES_DU3", vlan: 119, interface: "eth0"}, 
								{address: "ES_DU1", vlan: 127, interface: "eth4"}, 
								{address: "ES_CM2CB", vlan: 130, interface: "eth1"}]

*.SW51.macTable.forwardingTable = [{address: "ES_CM1CB", vlan: 4, interface: "eth1"}, 
								{address: "ES_SM1CB", vlan: 5, interface: "eth2"}, 
								{address: "ES_SM1CB", vlan: 9, interface: "eth2"}, 
								{address: "ES_MIMU2", vlan: 14, interface: "eth1"}, 
								{address: "ES_CMRIU2", vlan: 19, interface: "eth3"}, 
								{address: "ES_SM2CA", vlan: 33, interface: "eth3"}, 
								{address: "ES_SM1CB", vlan: 35, interface: "eth2"}, 
								{address: "ES_SM1CA", vlan: 46, interface: "eth0"}, 
								{address: "ES_SM1CB", vlan: 51, interface: "eth2"}, 
								{address: "ES_FCM2", vlan: 54, interface: "eth3"}, 
								{address: "ES_SM1CA", vlan: 56, interface: "eth0"}, 
								{address: "ES_SM1CB", vlan: 66, interface: "eth2"}, 
								{address: "ES_SM2CA", vlan: 71, interface: "eth3"}, 
								{address: "ES_SM1CB", vlan: 76, interface: "eth2"}, 
								{address: "ES_SM1CA", vlan: 85, interface: "eth0"}, 
								{address: "ES_DU2", vlan: 90, interface: "eth1"}, 
								{address: "ES_SM1CB", vlan: 92, interface: "eth2"}, 
								{address: "ES_CM1CB", vlan: 97, interface: "eth1"}, 
								{address: "ES_SM1CB", vlan: 100, interface: "eth2"}, 
								{address: "ES_SM1CA", vlan: 109, interface: "eth0"}, 
								{address: "ES_SM1CB", vlan: 115, interface: "eth2"}, 
								{address: "ES_SMRIU1", vlan: 116, interface: "eth1"}, 
								{address: "ES_SM1CA", vlan: 117, interface: "eth0"}, 
								{address: "ES_SM1CB", vlan: 129, interface: "eth2"}, 
								{address: "ES_SM1CA", vlan: 132, interface: "eth0"}, 
								{address: "ES_SM1CA", vlan: 134, interface: "eth0"}, 
								{address: "ES_STARTR2", vlan: 135, interface: "eth1"}]

*.SW41.macTable.forwardingTable = [{address: "ES_CM1CB", vlan: 4, interface: "eth1"}, 
								{address: "ES_SM1CB", vlan: 9, interface: "eth0"}, 
								{address: "ES_SBAND1", vlan: 10, interface: "eth2"}, 
								{address: "ES_MIMU2", vlan: 14, interface: "eth2"}, 
								{address: "ES_CM1CB", vlan: 21, interface: "eth1"}, 
								{address: "ES_CMRIU2", vlan: 22, interface: "eth2"}, 
								{address: "ES_CM1CA", vlan: 27, interface: "eth3"}, 
								{address: "ES_SM1CB", vlan: 35, interface: "eth0"}, 
								{address: "ES_SM1CA", vlan: 56, interface: "eth0"}, 
								{address: "ES_CM1CA", vlan: 65, interface: "eth3"}, 
								{address: "ES_SM1CB", vlan: 66, interface: "eth0"}, 
								{address: "ES_LCM2", vlan: 73, interface: "eth2"}, 
								{address: "ES_SM1CB", vlan: 76, interface: "eth0"}, 
								{address: "ES_CM1CB", vlan: 82, interface: "eth1"}, 
								{address: "ES_CM1CA", vlan: 89, interface: "eth3"}, 
								{address: "ES_DU2", vlan: 90, interface: "eth2"}, 
								{address: "ES_CM1CB", vlan: 97, interface: "eth1"}, 
								{address: "ES_CM1CB", vlan: 99, interface: "eth1"}, 
								{address: "ES_CM1CA", vlan: 101, interface: "eth3"}, 
								{address: "ES_SM1CA", vlan: 109, interface: "eth0"}, 
								{address: "ES_CM1CB", vlan: 111, interface: "eth1"}, 
								{address: "ES_SMRIU1", vlan: 116, interface: "eth2"}, 
								{address: "ES_CM1CB", vlan: 121, interface: "eth1"}, 
								{address: "ES_GPS2", vlan: 122, interface: "eth2"}, 
								{address: "ES_SM1CB", vlan: 129, interface: "eth0"}, 
								{address: "ES_SM1CA", vlan: 134, interface: "eth0"}, 
								{address: "ES_STARTR2", vlan: 135, interface: "eth2"}]

*.SW21.macTable.forwardingTable = [{address: "ES_STARTR1", vlan: 6, interface: "eth1"}, 
								{address: "ES_DU2", vlan: 8, interface: "eth0"}, 
								{address: "ES_SM1CB", vlan: 9, interface: "eth2"}, 
								{address: "ES_SBAND1", vlan: 10, interface: "eth3"}, 
								{address: "ES_FCM1", vlan: 13, interface: "eth2"}, 
								{address: "ES_MIMU2", vlan: 14, interface: "eth1"}, 
								{address: "ES_CM1CB", vlan: 21, interface: "eth2"}, 
								{address: "ES_SMRIU2", vlan: 24, interface: "eth2"}, 
								{address: "ES_FCM1", vlan: 26, interface: "eth2"}, 
								{address: "ES_RCM1", vlan: 30, interface: "eth2"}, 
								{address: "ES_SM2CA", vlan: 34, interface: "eth2"}, 
								{address: "ES_SBAND1", vlan: 39, interface: "eth3"}, 
								{address: "ES_STARTR2", vlan: 40, interface: "eth1"}, 
								{address: "ES_SM2CB", vlan: 43, interface: "eth2"}, 
								{address: "ES_MIMU3", vlan: 47, interface: "eth1"}, 
								{address: "ES_DU3", vlan: 48, interface: "eth0"}, 
								{address: "ES_DU1", vlan: 49, interface: "eth0"}, 
								{address: "ES_STARTR2", vlan: 50, interface: "eth1"}, 
								{address: "ES_LCM2", vlan: 53, interface: "eth6"}, 
								{address: "ES_SM1CA", vlan: 56, interface: "eth2"}, 
								{address: "ES_SM2CB", vlan: 59, interface: "eth2"}, 
								{address: "ES_CMRIU1", vlan: 64, interface: "eth5"}, 
								{address: "ES_SM1CB", vlan: 66, interface: "eth2"}, 
								{address: "ES_SM2CB", vlan: 67, interface: "eth2"}, 
								{address: "ES_MIMU1", vlan: 69, interface: "eth1"}, 
								{address: "ES_DU1", vlan: 70, interface: "eth0"}, 
								{address: "ES_SMRIU1", vlan: 75, interface: "eth2"}, 
								{address: "ES_MIMU1", vlan: 78, interface: "eth1"}, 
								{address: "ES_CM1CB", vlan: 82, interface: "eth2"}, 
								{address: "ES_SBAND1", vlan: 83, interface: "eth3"}, 
								{address: "ES_SM2CA", vlan: 84, interface: "eth2"}, 
								{address: "ES_GPS1", vlan: 87, interface: "eth4"}, 
								{address: "ES_DU2", vlan: 88, interface: "eth0"}, 
								{address: "ES_DU2", vlan: 90, interface: "eth0"}, 
								{address: "ES_CM1CA", vlan: 101, interface: "eth2"}, 
								{address: "ES_CMRIU1", vlan: 104, interface: "eth5"}, 
								{address: "ES_DU3", vlan: 106, interface: "eth0"}, 
								{address: "ES_SMRIU1", vlan: 107, interface: "eth2"}, 
								{address: "ES_SBAND1", vlan: 108, interface: "eth3"}, 
								{address: "ES_SM1CA", vlan: 109, interface: "eth2"}, 
								{address: "ES_CM1CB", vlan: 111, interface: "eth2"}, 
								{address: "ES_SBAND2", vlan: 112, interface: "eth3"}, 
								{address: "ES_GPS2", vlan: 113, interface: "eth4"}, 
								{address: "ES_FCM1", vlan: 114, interface: "eth2"}, 
								{address: "ES_DU3", vlan: 119, interface: "eth0"}, 
								{address: "ES_CM1CB", vlan: 121, interface: "eth2"}, 
								{address: "ES_GPS2", vlan: 122, interface: "eth4"}, 
								{address: "ES_SMRIU1", vlan: 123, interface: "eth2"}, 
								{address: "ES_GPS2", vlan: 124, interface: "eth4"}, 
								{address: "ES_SMRIU2", vlan: 126, interface: "eth2"}, 
								{address: "ES_DU1", vlan: 127, interface: "eth0"}, 
								{address: "ES_FCM2", vlan: 128, interface: "eth6"}, 
								{address: "ES_SM1CB", vlan: 129, interface: "eth2"}, 
								{address: "ES_SBAND2", vlan: 133, interface: "eth3"}, 
								{address: "ES_SM1CA", vlan: 134, interface: "eth2"}, 
								{address: "ES_STARTR2", vlan: 135, interface: "eth1"}]

*.SW31.macTable.forwardingTable = [{address: "ES_DU2", vlan: 8, interface: "eth1"}, 
								{address: "ES_SM1CB", vlan: 9, interface: "eth2"}, 
								{address: "ES_SBAND1", vlan: 10, interface: "eth1"}, 
								{address: "ES_LCM1", vlan: 11, interface: "eth7"}, 
								{address: "ES_FCM1", vlan: 13, interface: "eth3"}, 
								{address: "ES_MIMU2", vlan: 14, interface: "eth1"}, 
								{address: "ES_RCM1", vlan: 17, interface: "eth5"}, 
								{address: "ES_CM1CB", vlan: 21, interface: "eth2"}, 
								{address: "ES_CMRIU2", vlan: 22, interface: "eth4"}, 
								{address: "ES_FCM2", vlan: 23, interface: "eth0"}, 
								{address: "ES_SMRIU2", vlan: 24, interface: "eth0"}, 
								{address: "ES_FCM1", vlan: 26, interface: "eth3"}, 
								{address: "ES_CM1CA", vlan: 27, interface: "eth2"}, 
								{address: "ES_BFCU", vlan: 29, interface: "eth4"}, 
								{address: "ES_RCM1", vlan: 30, interface: "eth5"}, 
								{address: "ES_SM2CA", vlan: 34, interface: "eth6"}, 
								{address: "ES_SM1CB", vlan: 35, interface: "eth2"}, 
								{address: "ES_SM2CA", vlan: 42, interface: "eth6"}, 
								{address: "ES_SM2CB", vlan: 43, interface: "eth6"}, 
								{address: "ES_SM1CA", vlan: 56, interface: "eth2"}, 
								{address: "ES_SM2CB", vlan: 59, interface: "eth6"}, 
								{address: "ES_CM1CA", vlan: 65, interface: "eth2"}, 
								{address: "ES_SM1CB", vlan: 66, interface: "eth2"}, 
								{address: "ES_SM2CB", vlan: 67, interface: "eth6"}, 
								{address: "ES_LCM2", vlan: 73, interface: "eth0"}, 
								{address: "ES_SMRIU1", vlan: 75, interface: "eth0"}, 
								{address: "ES_SM1CB", vlan: 76, interface: "eth2"}, 
								{address: "ES_CM1CB", vlan: 82, interface: "eth2"}, 
								{address: "ES_SBAND1", vlan: 83, interface: "eth1"}, 
								{address: "ES_SM2CA", vlan: 84, interface: "eth6"}, 
								{address: "ES_CM1CA", vlan: 89, interface: "eth2"}, 
								{address: "ES_DU2", vlan: 90, interface: "eth1"}, 
								{address: "ES_CM1CB", vlan: 99, interface: "eth2"}, 
								{address: "ES_CM1CA", vlan: 101, interface: "eth2"}, 
								{address: "ES_FCM1", vlan: 102, interface: "eth3"}, 
								{address: "ES_LCM1", vlan: 105, interface: "eth7"}, 
								{address: "ES_DU3", vlan: 106, interface: "eth1"}, 
								{address: "ES_SMRIU1", vlan: 107, interface: "eth0"}, 
								{address: "ES_SM1CA", vlan: 109, interface: "eth2"}, 
								{address: "ES_CM1CB", vlan: 111, interface: "eth2"}, 
								{address: "ES_FCM1", vlan: 114, interface: "eth3"}, 
								{address: "ES_SMRIU1", vlan: 116, interface: "eth0"}, 
								{address: "ES_DU3", vlan: 119, interface: "eth1"}, 
								{address: "ES_CM1CB", vlan: 121, interface: "eth2"}, 
								{address: "ES_GPS2", vlan: 122, interface: "eth1"}, 
								{address: "ES_SMRIU1", vlan: 123, interface: "eth0"}, 
								{address: "ES_FCM1", vlan: 125, interface: "eth3"}, 
								{address: "ES_SMRIU2", vlan: 126, interface: "eth0"}, 
								{address: "ES_SM1CB", vlan: 129, interface: "eth2"}, 
								{address: "ES_SM1CA", vlan: 134, interface: "eth2"}, 
								{address: "ES_STARTR2", vlan: 135, interface: "eth1"}]

*.SW12.macTable.forwardingTable = [{address: "ES_SBAND1", vlan: 10, interface: "eth1"}, 
								{address: "ES_RCM2", vlan: 28, interface: "eth2"}, 
								{address: "ES_CMRIU2", vlan: 36, interface: "eth2"}, 
								{address: "ES_SBAND1", vlan: 37, interface: "eth1"}, 
								{address: "ES_SBAND1", vlan: 39, interface: "eth1"}, 
								{address: "ES_DU1", vlan: 70, interface: "eth0"}, 
								{address: "ES_SBAND1", vlan: 83, interface: "eth1"}, 
								{address: "ES_DU2", vlan: 88, interface: "eth0"}, 
								{address: "ES_SMRIU1", vlan: 107, interface: "eth0"}, 
								{address: "ES_SBAND1", vlan: 108, interface: "eth1"}, 
								{address: "ES_CM1CB", vlan: 111, interface: "eth0"}, 
								{address: "ES_SBAND2", vlan: 112, interface: "eth3"}, 
								{address: "ES_SBAND1", vlan: 118, interface: "eth1"}, 
								{address: "ES_GPS2", vlan: 124, interface: "eth0"}, 
								{address: "ES_SM1CB", vlan: 129, interface: "eth0"}, 
								{address: "ES_SBAND2", vlan: 133, interface: "eth3"}]

*.SW14.macTable.forwardingTable = [{address: "ES_GPS1", vlan: 12, interface: "eth1"}, 
								{address: "ES_FCM1", vlan: 26, interface: "eth2"}, 
								{address: "ES_SM1CA", vlan: 56, interface: "eth2"}, 
								{address: "ES_SM2CB", vlan: 67, interface: "eth2"}, 
								{address: "ES_SMRIU1", vlan: 75, interface: "eth2"}, 
								{address: "ES_GPS1", vlan: 87, interface: "eth1"}, 
								{address: "ES_GPS2", vlan: 94, interface: "eth3"}, 
								{address: "ES_CM1CA", vlan: 101, interface: "eth2"}, 
								{address: "ES_SBAND2", vlan: 112, interface: "eth2"}, 
								{address: "ES_GPS2", vlan: 113, interface: "eth3"}, 
								{address: "ES_FCM1", vlan: 114, interface: "eth2"}, 
								{address: "ES_GPS2", vlan: 122, interface: "eth3"}, 
								{address: "ES_GPS2", vlan: 124, interface: "eth3"}]

*.SW7.macTable.forwardingTable = [{address: "ES_RCM1", vlan: 17, interface: "eth1"}, 
								{address: "ES_CMRIU2", vlan: 22, interface: "eth0"}, 
								{address: "ES_BFCU", vlan: 29, interface: "eth0"}, 
								{address: "ES_LCM2", vlan: 53, interface: "eth3"}, 
								{address: "ES_CM1CA", vlan: 89, interface: "eth1"}, 
								{address: "ES_CM1CB", vlan: 99, interface: "eth1"}, 
								{address: "ES_FCM2", vlan: 128, interface: "eth3"}]

*.SW8.macTable.forwardingTable = [{address: "ES_LCM1", vlan: 11, interface: "eth3"}, 
								{address: "ES_CMRIU2", vlan: 19, interface: "eth1"}, 
								{address: "ES_CM1CA", vlan: 27, interface: "eth3"}, 
								{address: "ES_SM2CA", vlan: 33, interface: "eth2"}, 
								{address: "ES_SM2CA", vlan: 34, interface: "eth2"}, 
								{address: "ES_SM2CA", vlan: 42, interface: "eth2"}, 
								{address: "ES_SM2CB", vlan: 43, interface: "eth2"}, 
								{address: "ES_SM1CA", vlan: 46, interface: "eth0"}, 
								{address: "ES_SM1CB", vlan: 51, interface: "eth0"}, 
								{address: "ES_FCM2", vlan: 54, interface: "eth1"}, 
								{address: "ES_SM2CB", vlan: 59, interface: "eth2"}, 
								{address: "ES_SM2CB", vlan: 67, interface: "eth2"}, 
								{address: "ES_SM2CA", vlan: 71, interface: "eth2"}, 
								{address: "ES_SM2CA", vlan: 84, interface: "eth2"}, 
								{address: "ES_SM1CA", vlan: 85, interface: "eth0"}, 
								{address: "ES_SM1CB", vlan: 92, interface: "eth0"}, 
								{address: "ES_LCM1", vlan: 105, interface: "eth3"}, 
								{address: "ES_SM1CB", vlan: 115, interface: "eth0"}, 
								{address: "ES_SM1CA", vlan: 117, interface: "eth0"}, 
								{address: "ES_SM1CA", vlan: 132, interface: "eth0"}]

